90

C -3.739892112207028 0.587443797909154 0.0006073419958206872
C -2.816815781476718 -0.48434951995924824 0.024115013189651924
C -1.4323488599612018 -0.25995529215518665 0.011823741922807551
C -0.9480852133896629 1.096769036784092 -0.026452338855959066
C -1.8931568726364238 2.187837233372838 -0.059815261509506445
C -3.2940357169156234 1.9025784245896316 -0.041483762322529705
C 0.46623092378697617 1.3777148261676562 -0.032589678451831805
C 0.8875525078628246 2.712700831794809 -0.06870934538020435
C -0.04010457788284816 3.778715317655716 -0.11257925336082109
C -1.4088614939955157 3.5398135827703725 -0.11257925336082109
C -0.464295717921517 -1.380170655594286 0.0343721180231461
C 0.9461500075242018 -1.0943132073574604 0.024669899284644387
C 1.4345943638594312 0.2588508045894268 -0.003858202903852914
C 1.8889886025269491 -2.184356525016825 0.0439426390138732
C 3.2899844254264443 -1.9096804374776677 0.03587301938714421
C 3.743753867160836 -0.5969376943386298 0.011879858506726015
C 2.819806891855247 0.478255314393879 -0.007774570744066622
C -0.8812328307723597 -2.7189071593072 0.06253367762402584
C 0.049516033470419885 -3.7886260844493487 0.08063818440049919
C 1.4143354667279406 -3.530680053368805 0.07133151795569825
C -2.3712944860056213 4.70046221571217 -0.1872752991404784
C -10.612511986479076 9.384224102107124 4.222964862958152
C -9.516931457313293 9.335849621923092 3.336098865563138
C -9.329206754035862 8.1815595616649 2.5683529265229668
C -10.18784781626664 7.062452760373022 2.665923427516749
C -11.285565813018342 7.137435022268314 3.5387945599431996
C -11.498689771915371 8.295589361628807 4.314431749271959
N -9.858441592729331 5.912454008025389 1.8468583160254664
C -11.024732700191182 5.130681706348437 1.368536954240699
C -8.779231059891842 5.0696498519979 2.446548240366212
C -11.9249416700231 5.9671431908745305 0.4253103180783697
C -7.739185136650493 4.550925367008891 1.4266283014755472
O -7.714622492758144 5.136440982009205 0.25829498907579196
O -6.946301570239551 3.6251629785064567 1.8052402652680468
O -11.30871365382637 6.806320558891243 -0.3745172253959479
O -13.18231050654222 5.765458455867247 0.45123709922271305
O -8.319249368730453 8.043386700614278 1.5948968897948321
C -7.132859531601884 8.909962798290122 1.5813779699374308
C -6.055442068690303 8.12142082675646 0.871685036275496
O -6.478419423589526 7.924919883019972 -0.5498346588519316
C -5.614146350882622 7.287512122097266 -1.4088664923555354
C -5.987417416383449 7.3862367976446 -2.8324040346264567
C -5.414525591336862 6.386865427955642 -3.7257027965731933
C -4.416759131640665 5.5652268401222145 -3.3022919543984757
C -3.956487694758069 5.599894307256469 -1.9132641808194455
C -4.60725714034735 6.4648906666380705 -0.9769705386196287
O -4.563989896195229 9.490295827019443 -2.2816516879789015
O -5.616997250059102 11.551886001660186 -2.1754501167069966
O -9.707853277363984 6.836966675216809 -4.940129733630363
O -9.005373848069874 6.918475741199786 -2.751794494268245
C -8.916976343491934 7.191357381525999 -4.018098136422184
C -5.569481172045318 10.289837894665123 -2.353420906427898
C -7.689336215122683 8.063001428103565 -4.464730354431579
C -6.978704223068111 9.629857040933267 -2.652340243547131
N -6.831311278996199 8.321073575822746 -3.293019125257729
N -2.9808423696496433 4.773984475476864 -1.5448474020872218
Ca -8.965518897676036 6.921812849996473 -0.46253544244855427
H -4.804470297176559 0.372964434436303 0.01650069415015676
H -3.210539356119237 -1.4935174400340216 0.053004828903078116
H -4.018497068218397 2.7095949442089085 -0.05725195580477471
H 1.9422882459969977 2.958892587758269 -0.07123444604480111
H 0.32751995587462557 4.800505155245834 -0.15143487893928254
H 3.9891118567702955 -2.7418278011987147 0.04961806644523681
H 4.808653107108153 -0.3829026614636346 0.00746839953683609
H 3.2173332593936554 1.4864376799531245 -0.026429794395918305
H -1.9363653790754052 -2.9658690902256604 0.07037753694479487
H -0.3167873037548854 -4.811017698735711 0.10142890234822943
H 2.137098702515858 -4.342392310944882 0.0850139455265485
H -1.8522410090470158 5.64596649724682 0.004533327889946981
H -3.177695102153018 4.608816527266446 0.5487187575183983
H -10.773464059149333 10.27357867908735 4.8250266215296085
H -8.851832787688597 10.187845205678553 3.239310967568558
H -11.965644224535016 6.2971058859933535 3.6294127761764265
H -12.34823161813489 8.340609163989463 4.9896094137778135
H -11.636154331806662 4.721303432264261 2.182690831634004
H -10.640785522844737 4.276630151891247 0.7945803909414819
H -8.227793043116904 5.671272806240453 3.1766812951570516
H -9.202399666444018 4.2139177689761596 2.9899207146562876
H -7.371467755095401 9.85306234752533 1.0786578708188466
H -6.801736171805983 9.106440236135034 2.606454828665065
H -5.106706290415057 8.66528248998813 0.8651084964277681
H -5.949522201191705 7.136454553473209 1.3324615713449306
H -5.710027355699847 6.3588830260924345 -4.764912906013266
H -3.9322034523423475 4.881132722345852 -3.9921129062748544
H -4.351162231247793 6.409441644215575 0.07036217527045269
H -7.16858660017929 7.545429696745097 -5.269348631776309
H -8.058354666913104 9.009990278069797 -4.8592039576740165
H -7.474392662247359 9.576790422164034 -1.6835313162995142
H -7.554335757492681 10.276912645356969 -3.31119066912365
H -2.578501952519452 4.1507585785336705 -2.246462280585976